# created with PyMOL 2.5.8
@<TRIPOS>MOLECULE
pep
501 505 28              
SMALL
USER_CHARGES
@<TRIPOS>ATOM
1	   N	-0.517	-2.346	-1.038	N.3	1	GLU1	-0.516	
2	  CA	0.042	-0.997	-1.038	C.3	1	GLU1	0.040	
3	   C	1.551	-1.037	-1.038	C.2	1	GLU1	0.537	
4	   O	2.188	-1.798	-0.295	O.2	1	GLU1	-0.582	
5	  CB	-0.481	-0.212	0.199	C.3	1	GLU1	0.056	
6	  CG	-0.006	1.273	0.310	C.3	1	GLU1	0.014	
7	  CD	-0.430	2.077	1.525	C.2	1	GLU1	0.805	
8	 OE1	-1.158	1.575	2.403	O.co2	1	GLU1	-0.819	
9	 OE2	-0.000	3.247	1.597	O.co2	1	GLU1	-0.819	
10	   H	0.110	-3.225	-1.038	 H	1	GLU1	0.294	
11	  HA	-0.284	-0.479	-1.958	 H	1	GLU1	0.111	
12	 2HB	-0.192	-0.743	1.129	 H	1	GLU1	-0.017	
13	 3HB	-1.588	-0.222	0.212	 H	1	GLU1	-0.017	
14	 2HG	-0.316	1.858	-0.571	 H	1	GLU1	-0.043	
15	 3HG	1.094	1.340	0.339	 H	1	GLU1	-0.043	
16	   N	2.197	-0.256	-1.836	N.am	2	GLN2	-0.416	
17	  CA	3.656	-0.295	-1.836	C.3	2	GLN2	-0.003	
18	   C	4.235	1.097	-1.934	C.2	2	GLN2	0.597	
19	   O	3.802	1.927	-2.731	O.2	2	GLN2	-0.568	
20	  CB	4.128	-1.175	-3.014	C.3	2	GLN2	-0.004	
21	  CG	5.673	-1.374	-3.152	C.3	2	GLN2	-0.064	
22	  CD	6.219	-2.186	-4.334	C.2	2	GLN2	0.695	
23	 NE2	5.395	-2.715	-5.201	N.pl3	2	GLN2	-0.941	
24	 OE1	7.421	-2.330	-4.497	O.2	2	GLN2	-0.609	
25	   H	1.700	0.372	-2.451	 H	2	GLN2	0.272	
26	  HA	4.000	-0.733	-0.881	 H	2	GLN2	0.085	
27	 2HB	3.735	-0.742	-3.958	 H	2	GLN2	0.017	
28	 3HB	3.651	-2.171	-2.931	 H	2	GLN2	0.017	
29	 2HG	6.083	-1.819	-2.227	 H	2	GLN2	0.035	
30	 3HG	6.181	-0.396	-3.233	 H	2	GLN2	0.035	
31	1HE2	5.841	-3.183	-5.991	 H	2	GLN2	0.425	
32	2HE2	4.408	-2.499	-5.046	 H	2	GLN2	0.425	
33	   N	5.213	1.424	-1.160	N.am	3	TYR3	-0.416	
34	  CA	5.773	2.769	-1.256	C.3	3	TYR3	-0.001	
35	   C	7.278	2.737	-1.158	C.2	3	TYR3	0.597	
36	   O	7.865	2.058	-0.311	O.2	3	TYR3	-0.568	
37	  CB	5.237	3.676	-0.109	C.3	3	TYR3	-0.015	
38	  CG	3.723	3.917	-0.073	C.2	3	TYR3	-0.001	
39	 CD1	3.126	4.835	-0.944	C.2	3	TYR3	-0.191	
40	 CD2	2.928	3.208	0.832	C.2	3	TYR3	-0.191	
41	 CE1	1.749	5.034	-0.912	C.2	3	TYR3	-0.234	
42	 CE2	1.551	3.409	0.863	C.2	3	TYR3	-0.234	
43	  CZ	0.962	4.322	-0.009	C.2	3	TYR3	0.323	
44	  OH	-0.389	4.519	0.017	O.3	3	TYR3	-0.558	
45	   H	5.587	0.759	-0.497	 H	3	TYR3	0.272	
46	  HA	5.505	3.200	-2.238	 H	3	TYR3	0.088	
47	 2HB	5.730	4.667	-0.157	 H	3	TYR3	0.030	
48	 3HB	5.570	3.269	0.868	 H	3	TYR3	0.030	
49	 1HD	3.728	5.387	-1.652	 H	3	TYR3	0.170	
50	 2HD	3.377	2.489	1.504	 H	3	TYR3	0.170	
51	 1HE	1.285	5.737	-1.588	 H	3	TYR3	0.166	
52	 2HE	0.948	2.850	1.562	 H	3	TYR3	0.166	
53	  HH	-0.766	3.949	0.691	 H	3	TYR3	0.399	
54	   N	7.974	3.440	-1.986	N.am	4	THR4	-0.416	
55	  CA	9.430	3.409	-1.891	C.3	4	THR4	-0.039	
56	   C	10.015	4.787	-2.087	C.2	4	THR4	0.597	
57	   O	9.639	5.525	-2.975	O.2	4	THR4	-0.568	
58	  CB	10.027	2.401	-2.931	C.3	4	THR4	0.365	
59	 CG2	11.565	2.270	-2.951	C.3	4	THR4	-0.244	
60	 OG1	9.560	1.083	-2.672	O.3	4	THR4	-0.676	
61	   H	7.518	4.005	-2.689	 H	4	THR4	0.272	
62	  HA	9.706	3.075	-0.874	 H	4	THR4	0.101	
63	  HB	9.688	2.704	-3.945	 H	4	THR4	0.004	
64	 1HG	9.904	0.534	-3.383	 H	4	THR4	0.410	
65	1HG2	11.909	1.525	-3.693	 H	4	THR4	0.064	
66	2HG2	12.067	3.217	-3.223	 H	4	THR4	0.064	
67	3HG2	11.964	1.961	-1.967	 H	4	THR4	0.064	
68	   N	10.944	5.192	-1.288	N.am	5	ALA5	-0.416	
69	  CA	11.509	6.524	-1.478	C.3	5	ALA5	0.034	
70	   C	13.007	6.508	-1.284	C.2	5	ALA5	0.597	
71	   O	13.539	5.916	-0.338	O.2	5	ALA5	-0.568	
72	  CB	10.793	7.478	-0.507	C.3	5	ALA5	-0.183	
73	   H	11.274	4.596	-0.542	 H	5	ALA5	0.272	
74	  HA	11.316	6.845	-2.519	 H	5	ALA5	0.082	
75	 1HB	9.701	7.505	-0.689	 H	5	ALA5	0.060	
76	 2HB	10.936	7.183	0.550	 H	5	ALA5	0.060	
77	 3HB	11.156	8.517	-0.607	 H	5	ALA5	0.060	
78	   N	13.753	7.132	-2.131	N.am	6	LYS6	-0.348	
79	  CA	15.201	7.117	-1.945	C.3	6	LYS6	-0.240	
80	   C	15.798	8.474	-2.237	C.2	6	LYS6	0.734	
81	   O	15.471	9.135	-3.233	O.2	6	LYS6	-0.589	
82	  CB	15.829	6.026	-2.855	C.3	6	LYS6	-0.009	
83	  CG	17.360	5.879	-2.674	C.3	6	LYS6	0.019	
84	  CD	18.023	4.857	-3.602	C.3	6	LYS6	-0.048	
85	  CE	19.539	4.868	-3.366	C.3	6	LYS6	-0.014	
86	  NZ	20.162	3.772	-4.128	N.4	6	LYS6	-0.385	
87	   H	13.342	7.623	-2.912	 H	6	LYS6	0.275	
88	  HA	15.414	6.882	-0.885	 H	6	LYS6	0.143	
89	 2HB	15.594	6.247	-3.917	 H	6	LYS6	0.036	
90	 3HB	15.345	5.050	-2.654	 H	6	LYS6	0.036	
91	 2HG	17.587	5.632	-1.618	 H	6	LYS6	0.010	
92	 3HG	17.862	6.846	-2.865	 H	6	LYS6	0.010	
93	 2HD	17.799	5.109	-4.659	 H	6	LYS6	0.062	
94	 3HD	17.593	3.853	-3.423	 H	6	LYS6	0.062	
95	 2HE	19.777	4.753	-2.288	 H	6	LYS6	0.113	
96	 3HE	19.972	5.845	-3.669	 H	6	LYS6	0.113	
97	 1HZ	19.693	3.648	-5.033	 H	6	LYS6	0.340	
98	 2HZ	21.144	3.976	-4.341	 H	6	LYS6	0.340	
99	 3HZ	20.083	2.945	-3.553	 H	6	LYS6	0.340	
100	   N	16.676	8.959	-1.425	N.am	7	TYR7	-0.416	
101	  CA	17.253	10.270	-1.708	C.3	7	TYR7	-0.001	
102	   C	18.735	10.282	-1.421	C.2	7	TYR7	0.597	
103	   O	19.206	9.787	-0.394	O.2	7	TYR7	-0.568	
104	  CB	16.586	11.371	-0.832	C.3	7	TYR7	-0.015	
105	  CG	15.081	11.589	-1.029	C.2	7	TYR7	-0.001	
106	 CD1	14.604	12.313	-2.127	C.2	7	TYR7	-0.191	
107	 CD2	14.175	11.053	-0.110	C.2	7	TYR7	-0.191	
108	 CE1	13.234	12.492	-2.303	C.2	7	TYR7	-0.234	
109	 CE2	12.806	11.234	-0.287	C.2	7	TYR7	-0.234	
110	  CZ	12.337	11.953	-1.384	C.2	7	TYR7	0.323	
111	  OH	10.994	12.129	-1.563	O.3	7	TYR7	-0.558	
112	   H	16.959	8.440	-0.606	 H	7	TYR7	0.272	
113	  HA	17.112	10.500	-2.780	 H	7	TYR7	0.088	
114	 2HB	17.089	12.342	-1.008	 H	7	TYR7	0.030	
115	 3HB	16.793	11.164	0.239	 H	7	TYR7	0.030	
116	 1HD	15.293	12.730	-2.848	 H	7	TYR7	0.170	
117	 2HD	14.531	10.484	0.738	 H	7	TYR7	0.170	
118	 1HE	12.863	13.045	-3.153	 H	7	TYR7	0.166	
119	 2HE	12.117	10.809	0.426	 H	7	TYR7	0.166	
120	  HH	10.533	11.693	-0.843	 H	7	TYR7	0.399	
121	   N	19.533	10.825	-2.277	N.am	8	LYS8	-0.348	
122	  CA	20.966	10.837	-2.000	C.3	8	LYS8	-0.240	
123	   C	21.581	12.162	-2.384	C.2	8	LYS8	0.734	
124	   O	21.316	12.722	-3.457	O.2	8	LYS8	-0.589	
125	  CB	21.649	9.667	-2.760	C.3	8	LYS8	-0.009	
126	  CG	23.166	9.546	-2.471	C.3	8	LYS8	0.019	
127	  CD	23.885	8.444	-3.254	C.3	8	LYS8	-0.048	
128	  CE	25.384	8.487	-2.927	C.3	8	LYS8	-0.014	
129	  NZ	26.052	7.325	-3.540	N.4	8	LYS8	-0.385	
130	   H	19.171	11.237	-3.125	 H	8	LYS8	0.275	
131	  HA	21.113	10.705	-0.912	 H	8	LYS8	0.143	
132	 2HB	21.481	9.783	-3.851	 H	8	LYS8	0.036	
133	 3HB	21.153	8.711	-2.497	 H	8	LYS8	0.036	
134	 2HG	23.327	9.404	-1.385	 H	8	LYS8	0.010	
135	 3HG	23.679	10.493	-2.723	 H	8	LYS8	0.010	
136	 2HD	23.727	8.592	-4.342	 H	8	LYS8	0.062	
137	 3HD	23.444	7.459	-3.006	 H	8	LYS8	0.062	
138	 2HE	25.554	8.477	-1.830	 H	8	LYS8	0.113	
139	 3HE	25.835	9.432	-3.295	 H	8	LYS8	0.113	
140	 1HZ	25.640	7.113	-4.456	 H	8	LYS8	0.340	
141	 2HZ	27.045	7.514	-3.710	 H	8	LYS8	0.340	
142	 3HZ	25.937	6.557	-2.894	 H	8	LYS8	0.340	
143	   N	22.406	12.728	-1.570	N.am	9	GLY9	-0.416	
144	  CA	23.000	14.009	-1.941	C.3	9	GLY9	-0.025	
145	   C	24.461	14.057	-1.566	C.2	9	GLY9	0.597	
146	   O	24.868	13.666	-0.468	O.2	9	GLY9	-0.568	
147	   H	22.638	12.292	-0.689	 H	9	GLY9	0.272	
148	 3HA	22.486	14.771	-1.433	 H	9	GLY9	0.070	
149	  HA	22.926	14.135	-3.038	 H	9	GLY9	0.070	
150	   N	25.311	14.520	-2.418	N.am	10	ARG10	-0.348	
151	  CA	26.725	14.566	-2.055	C.3	10	ARG10	-0.264	
152	   C	27.362	15.852	-2.526	C.2	10	ARG10	0.734	
153	   O	27.167	16.301	-3.653	O.2	10	ARG10	-0.589	
154	  CB	27.438	13.324	-2.661	C.3	10	ARG10	-0.001	
155	  CG	28.883	13.066	-2.148	C.3	10	ARG10	0.039	
156	  CD	29.526	11.844	-2.823	C.3	10	ARG10	0.049	
157	  NE	30.899	11.634	-2.278	N.pl3	10	ARG10	-0.530	
158	  CZ	31.735	10.668	-2.649	C.cat	10	ARG10	0.808	
159	 NH1	31.450	9.777	-3.557	N.pl3	10	ARG10	-0.863	
160	 NH2	32.897	10.607	-2.079	N.pl3	10	ARG10	-0.863	
161	   H	25.003	14.846	-3.324	 H	10	ARG10	0.275	
162	  HA	26.795	14.543	-0.951	 H	10	ARG10	0.156	
163	 2HB	27.438	13.418	-3.767	 H	10	ARG10	0.033	
164	 3HB	26.826	12.421	-2.464	 H	10	ARG10	0.033	
165	 2HG	28.860	12.935	-1.047	 H	10	ARG10	0.029	
166	 3HG	29.516	13.959	-2.329	 H	10	ARG10	0.029	
167	 2HD	29.557	12.005	-3.924	 H	10	ARG10	0.069	
168	 3HD	28.890	10.949	-2.654	 H	10	ARG10	0.069	
169	  HE	31.280	12.252	-1.554	 H	10	ARG10	0.346	
170	1HH1	30.519	9.882	-3.967	 H	10	ARG10	0.448	
171	2HH1	32.146	9.066	-3.785	 H	10	ARG10	0.448	
172	1HH2	33.103	11.315	-1.371	 H	10	ARG10	0.448	
173	2HH2	33.524	9.858	-2.377	 H	10	ARG10	0.448	
174	   N	28.134	16.499	-1.720	N.am	11	THR11	-0.416	
175	  CA	28.750	17.741	-2.176	C.3	11	THR11	-0.039	
176	   C	30.185	17.834	-1.717	C.2	11	THR11	0.597	
177	   O	30.517	17.558	-0.582	O.2	11	THR11	-0.568	
178	  CB	27.928	18.977	-1.677	C.3	11	THR11	0.365	
179	 CG2	28.470	20.366	-2.077	C.3	11	THR11	-0.244	
180	 OG1	26.608	18.945	-2.204	O.3	11	THR11	-0.676	
181	   H	28.310	16.150	-0.789	 H	11	THR11	0.272	
182	  HA	28.756	17.742	-3.281	 H	11	THR11	0.101	
183	  HB	27.868	18.932	-0.567	 H	11	THR11	0.004	
184	 1HG	26.142	19.685	-1.804	 H	11	THR11	0.410	
185	1HG2	27.826	21.186	-1.708	 H	11	THR11	0.064	
186	2HG2	29.475	20.565	-1.660	 H	11	THR11	0.064	
187	3HG2	28.545	20.476	-3.175	 H	11	THR11	0.064	
188	   N	31.086	18.219	-2.556	N.am	12	PHE12	-0.416	
189	  CA	32.474	18.309	-2.112	C.3	12	PHE12	-0.002	
190	   C	33.141	19.546	-2.664	C.2	12	PHE12	0.597	
191	   O	33.013	19.892	-3.872	O.2	12	PHE12	-0.568	
192	  CB	33.270	17.055	-2.587	C.3	12	PHE12	-0.034	
193	  CG	32.738	15.690	-2.123	C.2	12	PHE12	0.012	
194	 CD1	31.775	15.026	-2.891	C.2	12	PHE12	-0.126	
195	 CD2	33.157	15.133	-0.912	C.2	12	PHE12	-0.126	
196	 CE1	31.224	13.829	-2.444	C.2	12	PHE12	-0.170	
197	 CE2	32.614	13.929	-0.471	C.2	12	PHE12	-0.170	
198	  CZ	31.645	13.280	-1.235	C.2	12	PHE12	-0.107	
199	   H	30.836	18.454	-3.506	 H	12	PHE12	0.272	
200	  HA	32.494	18.372	-1.008	 H	12	PHE12	0.098	
201	 2HB	34.326	17.146	-2.265	 H	12	PHE12	0.030	
202	 3HB	33.338	17.055	-3.694	 H	12	PHE12	0.030	
203	 1HD	31.420	15.463	-3.815	 H	12	PHE12	0.133	
204	 2HD	33.892	15.642	-0.304	 H	12	PHE12	0.133	
205	 1HE	30.459	13.341	-3.029	 H	12	PHE12	0.143	
206	 2HE	32.935	13.506	0.470	 H	12	PHE12	0.143	
207	  HZ	31.213	12.354	-0.888	 H	12	PHE12	0.130	
208	   N	33.862	20.272	-1.878	N.am	13	ARG13	-0.348	
209	  CA	34.505	21.469	-2.413	C.3	13	ARG13	-0.264	
210	   C	35.910	21.613	-1.876	C.2	13	ARG13	0.734	
211	   O	36.172	21.447	-0.687	O.2	13	ARG13	-0.589	
212	  CB	33.634	22.707	-2.059	C.3	13	ARG13	-0.001	
213	  CG	34.022	24.028	-2.782	C.3	13	ARG13	0.039	
214	  CD	33.135	25.206	-2.349	C.3	13	ARG13	0.049	
215	  NE	33.540	26.438	-3.089	N.pl3	13	ARG13	-0.530	
216	  CZ	32.983	27.637	-2.949	C.cat	13	ARG13	0.808	
217	 NH1	32.002	27.885	-2.127	N.pl3	13	ARG13	-0.863	
218	 NH2	33.438	28.615	-3.667	N.pl3	13	ARG13	-0.863	
219	   H	33.979	20.017	-0.908	 H	13	ARG13	0.275	
220	  HA	34.577	21.357	-3.511	 H	13	ARG13	0.156	
221	 2HB	33.655	22.855	-0.959	 H	13	ARG13	0.033	
222	 3HB	32.572	22.480	-2.284	 H	13	ARG13	0.033	
223	 2HG	33.957	23.875	-3.879	 H	13	ARG13	0.029	
224	 3HG	35.084	24.275	-2.578	 H	13	ARG13	0.029	
225	 2HD	33.230	25.354	-1.251	 H	13	ARG13	0.069	
226	 3HD	32.069	24.959	-2.542	 H	13	ARG13	0.069	
227	  HE	34.301	26.414	-3.776	 H	13	ARG13	0.346	
228	1HH1	31.691	27.073	-1.590	 H	13	ARG13	0.448	
229	2HH1	31.628	28.835	-2.078	 H	13	ARG13	0.448	
230	1HH2	34.208	28.401	-4.305	 H	13	ARG13	0.448	
231	2HH2	32.997	29.527	-3.546	 H	13	ARG13	0.448	
232	   N	36.862	21.918	-2.690	N.am	14	ASN14	-0.416	
233	  CA	38.220	22.057	-2.170	C.3	14	ASN14	0.014	
234	   C	38.920	23.239	-2.797	C.2	14	ASN14	0.597	
235	   O	38.870	23.461	-4.007	O.2	14	ASN14	-0.568	
236	  CB	39.013	20.744	-2.434	C.3	14	ASN14	-0.204	
237	  CG	38.422	19.451	-1.863	C.2	14	ASN14	0.713	
238	 ND2	38.574	19.196	-0.591	N.pl3	14	ASN14	-0.919	
239	 OD1	37.795	18.661	-2.553	O.2	14	ASN14	-0.593	
240	   H	36.672	22.059	-3.672	 H	14	ASN14	0.272	
241	  HA	38.161	22.250	-1.083	 H	14	ASN14	0.105	
242	 2HB	40.052	20.841	-2.067	 H	14	ASN14	0.080	
243	 3HB	39.121	20.590	-3.525	 H	14	ASN14	0.080	
244	1HD2	38.017	18.394	-0.285	 H	14	ASN14	0.420	
245	2HD2	39.023	19.916	-0.026	 H	14	ASN14	0.420	
246	   N	39.591	24.041	-2.042	N.am	15	GLU15	-0.516	
247	  CA	40.268	25.185	-2.647	C.3	15	GLU15	0.040	
248	   C	41.635	25.387	-2.040	C.2	15	GLU15	0.537	
249	   O	41.824	25.338	-0.816	O.2	15	GLU15	-0.582	
250	  CB	39.400	26.463	-2.470	C.3	15	GLU15	0.056	
251	  CG	39.973	27.767	-3.114	C.3	15	GLU15	0.014	
252	  CD	39.206	29.062	-2.926	C.2	15	GLU15	0.805	
253	 OE1	38.133	29.085	-2.293	O.co2	15	GLU15	-0.819	
254	 OE2	39.715	30.089	-3.423	O.co2	15	GLU15	-0.819	
255	   H	39.647	23.881	-1.046	 H	15	GLU15	0.294	
256	  HA	40.401	24.986	-3.726	 H	15	GLU15	0.111	
257	 2HB	39.227	26.652	-1.391	 H	15	GLU15	-0.017	
258	 3HB	38.387	26.292	-2.883	 H	15	GLU15	-0.017	
259	 2HG	40.114	27.647	-4.201	 H	15	GLU15	-0.043	
260	 3HG	40.970	28.007	-2.710	 H	15	GLU15	-0.043	
261	   N	42.637	25.619	-2.819	N.am	16	LYS16	-0.348	
262	  CA	43.960	25.815	-2.233	C.3	16	LYS16	-0.240	
263	   C	44.698	26.935	-2.926	C.2	16	LYS16	0.734	
264	   O	44.724	27.040	-4.161	O.2	16	LYS16	-0.589	
265	  CB	44.762	24.488	-2.313	C.3	16	LYS16	-0.009	
266	  CG	46.158	24.571	-1.646	C.3	16	LYS16	0.019	
267	  CD	47.004	23.300	-1.763	C.3	16	LYS16	-0.048	
268	  CE	48.379	23.547	-1.127	C.3	16	LYS16	-0.014	
269	  NZ	49.132	22.282	-1.081	N.4	16	LYS16	-0.385	
270	   H	42.508	25.664	-3.820	 H	16	LYS16	0.275	
271	  HA	43.832	26.106	-1.174	 H	16	LYS16	0.143	
272	 2HB	44.869	24.180	-3.374	 H	16	LYS16	0.036	
273	 3HB	44.182	23.672	-1.838	 H	16	LYS16	0.036	
274	 2HG	46.045	24.852	-0.581	 H	16	LYS16	0.010	
275	 3HG	46.752	25.383	-2.103	 H	16	LYS16	0.010	
276	 2HD	47.121	23.023	-2.831	 H	16	LYS16	0.062	
277	 3HD	46.480	22.454	-1.277	 H	16	LYS16	0.062	
278	 2HE	48.277	23.955	-0.100	 H	16	LYS16	0.113	
279	 3HE	48.941	24.312	-1.703	 H	16	LYS16	0.113	
280	 1HZ	48.948	21.720	-1.921	 H	16	LYS16	0.340	
281	 2HZ	50.143	22.450	-1.067	 H	16	LYS16	0.340	
282	 3HZ	48.835	21.803	-0.243	 H	16	LYS16	0.340	
283	   N	45.321	27.810	-2.211	N.am	17	GLU17	-0.516	
284	  CA	46.035	28.893	-2.881	C.3	17	GLU17	0.040	
285	   C	47.362	29.161	-2.213	C.2	17	GLU17	0.537	
286	   O	47.475	29.230	-0.980	O.2	17	GLU17	-0.582	
287	  CB	45.158	30.178	-2.882	C.3	17	GLU17	0.056	
288	  CG	45.772	31.417	-3.612	C.3	17	GLU17	0.014	
289	  CD	44.995	32.720	-3.597	C.2	17	GLU17	0.805	
290	 OE1	43.884	32.798	-3.037	O.co2	17	GLU17	-0.819	
291	 OE2	45.534	33.697	-4.158	O.co2	17	GLU17	-0.819	
292	   H	45.315	27.746	-1.203	 H	17	GLU17	0.294	
293	  HA	46.235	28.593	-3.925	 H	17	GLU17	0.111	
294	 2HB	44.919	30.469	-1.839	 H	17	GLU17	-0.017	
295	 3HB	44.173	29.962	-3.338	 H	17	GLU17	-0.017	
296	 2HG	45.980	31.194	-4.671	 H	17	GLU17	-0.043	
297	 3HG	46.742	31.701	-3.172	 H	17	GLU17	-0.043	
298	   N	48.411	29.322	-2.947	N.am	18	LEU18	-0.416	
299	  CA	49.694	29.581	-2.300	C.3	18	LEU18	-0.052	
300	   C	50.474	30.633	-3.051	C.2	18	LEU18	0.597	
301	   O	50.578	30.619	-4.287	O.2	18	LEU18	-0.568	
302	  CB	50.516	28.267	-2.172	C.3	18	LEU18	-0.110	
303	  CG	49.880	27.080	-1.398	C.3	18	LEU18	0.353	
304	 CD1	50.883	25.924	-1.286	C.3	18	LEU18	-0.412	
305	 CD2	49.391	27.479	0.004	C.3	18	LEU18	-0.412	
306	   H	48.345	29.270	-3.953	 H	18	LEU18	0.272	
307	  HA	49.501	29.996	-1.295	 H	18	LEU18	0.092	
308	 2HB	51.489	28.506	-1.701	 H	18	LEU18	0.046	
309	 3HB	50.780	27.912	-3.188	 H	18	LEU18	0.046	
310	  HG	49.006	26.717	-1.980	 H	18	LEU18	-0.036	
311	1HD1	51.227	25.580	-2.281	 H	18	LEU18	0.100	
312	2HD1	51.784	26.205	-0.709	 H	18	LEU18	0.100	
313	3HD1	50.438	25.044	-0.786	 H	18	LEU18	0.100	
314	1HD2	50.195	27.923	0.618	 H	18	LEU18	0.100	
315	2HD2	48.572	28.221	-0.053	 H	18	LEU18	0.100	
316	3HD2	48.981	26.615	0.561	 H	18	LEU18	0.100	
317	   N	51.051	31.576	-2.386	N.am	19	ARG19	-0.348	
318	  CA	51.806	32.594	-3.111	C.3	19	ARG19	-0.264	
319	   C	53.089	32.932	-2.390	C.2	19	ARG19	0.734	
320	   O	53.124	33.118	-1.176	O.2	19	ARG19	-0.589	
321	  CB	50.908	33.851	-3.290	C.3	19	ARG19	-0.001	
322	  CG	51.449	34.925	-4.274	C.3	19	ARG19	0.039	
323	  CD	50.520	36.147	-4.364	C.3	19	ARG19	0.049	
324	  NE	51.079	37.132	-5.337	N.pl3	19	ARG19	-0.530	
325	  CZ	50.529	38.302	-5.647	C.cat	19	ARG19	0.808	
326	 NH1	49.418	38.739	-5.124	N.pl3	19	ARG19	-0.863	
327	 NH2	51.128	39.052	-6.518	N.pl3	19	ARG19	-0.863	
328	   H	50.982	31.610	-1.379	 H	19	ARG19	0.275	
329	  HA	52.078	32.178	-4.100	 H	19	ARG19	0.156	
330	 2HB	50.728	34.304	-2.293	 H	19	ARG19	0.033	
331	 3HB	49.902	33.533	-3.631	 H	19	ARG19	0.033	
332	 2HG	51.585	34.466	-5.275	 H	19	ARG19	0.029	
333	 3HG	52.460	35.256	-3.958	 H	19	ARG19	0.029	
334	 2HD	50.413	36.603	-3.355	 H	19	ARG19	0.069	
335	 3HD	49.504	35.819	-4.670	 H	19	ARG19	0.069	
336	  HE	51.953	36.942	-5.837	 H	19	ARG19	0.346	
337	1HH1	48.997	38.101	-4.444	 H	19	ARG19	0.448	
338	2HH1	49.060	39.650	-5.416	 H	19	ARG19	0.448	
339	1HH2	51.998	38.693	-6.917	 H	19	ARG19	0.448	
340	2HH2	50.689	39.946	-6.745	 H	19	ARG19	0.448	
341	   N	54.182	33.027	-3.069	N.am	20	ASP20	-0.516	
342	  CA	55.422	33.354	-2.371	C.3	20	ASP20	0.038	
343	   C	56.250	34.333	-3.168	C.2	20	ASP20	0.537	
344	   O	56.431	34.201	-4.388	O.2	20	ASP20	-0.582	
345	  CB	56.232	32.063	-2.064	C.3	20	ASP20	-0.030	
346	  CG	57.528	32.271	-1.266	C.2	20	ASP20	0.799	
347	 OD1	57.556	33.134	-0.365	O.co2	20	ASP20	-0.801	
348	 OD2	58.533	31.597	-1.574	O.co2	20	ASP20	-0.801	
349	   H	54.179	32.878	-4.067	 H	20	ASP20	0.294	
350	  HA	55.162	33.846	-1.415	 H	20	ASP20	0.088	
351	 2HB	56.496	31.549	-3.006	 H	20	ASP20	-0.012	
352	 3HB	55.621	31.345	-1.493	 H	20	ASP20	-0.012	
353	   N	56.785	35.338	-2.561	N.am	21	PHE21	-0.416	
354	  CA	57.585	36.286	-3.331	C.3	21	PHE21	-0.002	
355	   C	58.821	36.698	-2.568	C.2	21	PHE21	0.597	
356	   O	58.777	37.009	-1.345	O.2	21	PHE21	-0.568	
357	  CB	56.744	37.558	-3.653	C.3	21	PHE21	-0.034	
358	  CG	55.438	37.337	-4.432	C.2	21	PHE21	0.012	
359	 CD1	54.254	37.070	-3.735	C.2	21	PHE21	-0.126	
360	 CD2	55.429	37.337	-5.829	C.2	21	PHE21	-0.126	
361	 CE1	53.081	36.788	-4.426	C.2	21	PHE21	-0.170	
362	 CE2	54.251	37.065	-6.521	C.2	21	PHE21	-0.170	
363	  CZ	53.080	36.787	-5.819	C.2	21	PHE21	-0.107	
364	   H	56.652	35.468	-1.568	 H	21	PHE21	0.272	
365	  HA	57.910	35.800	-4.271	 H	21	PHE21	0.098	
366	 2HB	57.369	38.279	-4.217	 H	21	PHE21	0.030	
367	 3HB	56.513	38.099	-2.713	 H	21	PHE21	0.030	
368	 1HD	54.256	37.037	-2.653	 H	21	PHE21	0.133	
369	 2HD	56.339	37.530	-6.380	 H	21	PHE21	0.133	
370	 1HE	52.180	36.552	-3.879	 H	21	PHE21	0.143	
371	 2HE	54.251	37.058	-7.601	 H	21	PHE21	0.143	
372	  HZ	52.169	36.563	-6.354	 H	21	PHE21	0.130	
373	   N	59.954	36.734	-3.183	N.am	22	ILE22	-0.416	
374	  CA	61.148	37.134	-2.443	C.3	22	ILE22	-0.060	
375	   C	62.024	38.037	-3.277	C.2	22	ILE22	0.597	
376	   O	62.281	37.789	-4.465	O.2	22	ILE22	-0.568	
377	  CB	61.942	35.874	-1.907	C.3	22	ILE22	0.130	
378	 CG1	61.078	34.855	-1.098	C.3	22	ILE22	-0.043	
379	 CG2	63.177	36.262	-1.036	C.3	22	ILE22	-0.320	
380	 CD1	61.726	33.478	-0.839	C.3	22	ILE22	-0.066	
381	   H	60.015	36.490	-4.161	 H	22	ILE22	0.272	
382	  HA	60.818	37.732	-1.574	 H	22	ILE22	0.087	
383	  HB	62.320	35.333	-2.801	 H	22	ILE22	0.019	
384	2HG1	60.139	34.648	-1.645	 H	22	ILE22	0.024	
385	3HG1	60.747	35.306	-0.142	 H	22	ILE22	0.024	
386	1HG2	63.909	36.890	-1.574	 H	22	ILE22	0.088	
387	2HG2	62.884	36.809	-0.120	 H	22	ILE22	0.088	
388	3HG2	63.759	35.380	-0.713	 H	22	ILE22	0.088	
389	1HD1	62.029	32.984	-1.782	 H	22	ILE22	0.019	
390	2HD1	62.623	33.546	-0.198	 H	22	ILE22	0.019	
391	3HD1	61.023	32.796	-0.327	 H	22	ILE22	0.019	
392	   N	62.520	39.098	-2.738	N.am	23	GLU23	-0.516	
393	  CA	63.368	39.972	-3.545	C.3	23	GLU23	0.040	
394	   C	64.552	40.463	-2.748	C.2	23	GLU23	0.537	
395	   O	64.435	40.882	-1.588	O.2	23	GLU23	-0.582	
396	  CB	62.532	41.173	-4.072	C.3	23	GLU23	0.056	
397	  CG	63.295	42.175	-4.998	C.3	23	GLU23	0.014	
398	  CD	62.555	43.402	-5.498	C.2	23	GLU23	0.805	
399	 OE1	61.361	43.597	-5.197	O.co2	23	GLU23	-0.819	
400	 OE2	63.208	44.199	-6.204	O.co2	23	GLU23	-0.819	
401	   H	62.325	39.322	-1.773	 H	23	GLU23	0.294	
402	  HA	63.753	39.395	-4.405	 H	23	GLU23	0.111	
403	 2HB	62.108	41.739	-3.217	 H	23	GLU23	-0.017	
404	 3HB	61.644	40.804	-4.621	 H	23	GLU23	-0.017	
405	 2HG	63.692	41.669	-5.893	 H	23	GLU23	-0.043	
406	 3HG	64.171	42.605	-4.486	 H	23	GLU23	-0.043	
407	   N	65.722	40.446	-3.292	N.am	24	LYS24	-0.348	
408	  CA	66.868	40.920	-2.521	C.3	24	LYS24	-0.240	
409	   C	67.795	41.744	-3.383	C.2	24	LYS24	0.734	
410	   O	68.126	41.385	-4.523	O.2	24	LYS24	-0.589	
411	  CB	67.615	39.706	-1.905	C.3	24	LYS24	-0.009	
412	  CG	68.807	40.110	-1.003	C.3	24	LYS24	0.019	
413	  CD	69.608	38.937	-0.429	C.3	24	LYS24	-0.048	
414	  CE	70.794	39.481	0.379	C.3	24	LYS24	-0.014	
415	  NZ	71.464	38.368	1.073	N.4	24	LYS24	-0.385	
416	   H	65.843	40.109	-4.236	 H	24	LYS24	0.275	
417	  HA	66.497	41.576	-1.712	 H	24	LYS24	0.143	
418	 2HB	67.966	39.034	-2.715	 H	24	LYS24	0.036	
419	 3HB	66.905	39.093	-1.314	 H	24	LYS24	0.036	
420	 2HG	68.448	40.760	-0.180	 H	24	LYS24	0.010	
421	 3HG	69.526	40.728	-1.573	 H	24	LYS24	0.010	
422	 2HD	69.971	38.291	-1.255	 H	24	LYS24	0.062	
423	 3HD	68.949	38.304	0.195	 H	24	LYS24	0.062	
424	 2HE	70.460	40.234	1.122	 H	24	LYS24	0.113	
425	 3HE	71.508	40.008	-0.288	 H	24	LYS24	0.113	
426	 1HZ	71.470	37.525	0.486	 H	24	LYS24	0.340	
427	 2HZ	72.447	38.586	1.266	 H	24	LYS24	0.340	
428	 3HZ	70.954	38.219	1.932	 H	24	LYS24	0.340	
429	   N	68.258	42.855	-2.920	N.am	25	PHE25	-0.416	
430	  CA	69.154	43.652	-3.752	C.3	25	PHE25	-0.002	
431	   C	70.288	44.224	-2.935	C.2	25	PHE25	0.597	
432	   O	70.095	44.762	-1.810	O.2	25	PHE25	-0.568	
433	  CB	68.369	44.825	-4.414	C.3	25	PHE25	-0.034	
434	  CG	67.168	44.436	-5.291	C.2	25	PHE25	0.012	
435	 CD1	65.905	44.287	-4.707	C.2	25	PHE25	-0.126	
436	 CD2	67.333	44.169	-6.652	C.2	25	PHE25	-0.126	
437	 CE1	64.825	43.858	-5.471	C.2	25	PHE25	-0.170	
438	 CE2	66.249	43.750	-7.419	C.2	25	PHE25	-0.170	
439	  CZ	64.997	43.591	-6.827	C.2	25	PHE25	-0.107	
440	   H	68.004	43.170	-1.994	 H	25	PHE25	0.272	
441	  HA	69.590	43.001	-4.535	 H	25	PHE25	0.098	
442	 2HB	69.064	45.435	-5.024	 H	25	PHE25	0.030	
443	 3HB	68.026	45.531	-3.630	 H	25	PHE25	0.030	
444	 1HD	65.772	44.462	-3.647	 H	25	PHE25	0.133	
445	 2HD	68.306	44.269	-7.113	 H	25	PHE25	0.133	
446	 1HE	63.862	43.716	-5.004	 H	25	PHE25	0.143	
447	 2HE	66.383	43.537	-8.469	 H	25	PHE25	0.143	
448	  HZ	64.158	43.253	-7.417	 H	25	PHE25	0.130	
449	   N	71.489	44.161	-3.401	N.am	26	LYS26	-0.348	
450	  CA	72.585	44.714	-2.611	C.3	26	LYS26	-0.240	
451	   C	73.565	45.457	-3.489	C.2	26	LYS26	0.734	
452	   O	73.965	44.991	-4.566	O.2	26	LYS26	-0.589	
453	  CB	73.292	43.570	-1.835	C.3	26	LYS26	-0.009	
454	  CG	74.427	44.066	-0.904	C.3	26	LYS26	0.019	
455	  CD	75.189	42.958	-0.171	C.3	26	LYS26	-0.048	
456	  CE	76.323	43.584	0.652	C.3	26	LYS26	-0.014	
457	  NZ	76.949	42.547	1.491	N.4	26	LYS26	-0.385	
458	   H	71.669	43.735	-4.299	 H	26	LYS26	0.275	
459	  HA	72.165	45.443	-1.893	 H	26	LYS26	0.143	
460	 2HB	73.692	42.824	-2.553	 H	26	LYS26	0.036	
461	 3HB	72.547	43.012	-1.233	 H	26	LYS26	0.036	
462	 2HG	74.017	44.789	-0.172	 H	26	LYS26	0.010	
463	 3HG	75.179	44.630	-1.486	 H	26	LYS26	0.010	
464	 2HD	75.603	42.237	-0.907	 H	26	LYS26	0.062	
465	 3HD	74.493	42.384	0.469	 H	26	LYS26	0.062	
466	 2HE	75.944	44.404	1.297	 H	26	LYS26	0.113	
467	 3HE	77.077	44.049	-0.017	 H	26	LYS26	0.113	
468	 1HZ	76.990	41.651	0.989	 H	26	LYS26	0.340	
469	 2HZ	77.918	42.789	1.722	 H	26	LYS26	0.340	
470	 3HZ	76.386	42.478	2.327	 H	26	LYS26	0.340	
471	   N	73.998	46.610	-3.107	N.am	27	GLY27	-0.416	
472	  CA	74.945	47.327	-3.956	C.3	27	GLY27	-0.025	
473	   C	76.025	47.982	-3.129	C.2	27	GLY27	0.597	
474	   O	75.769	48.610	-2.099	O.2	27	GLY27	-0.568	
475	   H	73.687	47.011	-2.234	 H	27	GLY27	0.272	
476	 3HA	74.419	48.065	-4.487	 H	27	GLY27	0.070	
477	  HA	75.430	46.607	-4.641	 H	27	GLY27	0.070	
478	   N	77.253	47.881	-3.512	N.am	28	ARG28	-0.348	
479	  CA	78.297	48.514	-2.711	C.3	28	ARG28	-0.264	
480	   C	79.329	49.173	-3.595	C.2	28	ARG28	0.734	
481	   O	79.237	49.168	-4.820	O.2	28	ARG28	-0.589	
482	  CB	78.942	47.440	-1.790	C.3	28	ARG28	-0.001	
483	  CG	79.880	47.989	-0.678	C.3	28	ARG28	0.039	
484	  CD	80.501	46.861	0.162	C.3	28	ARG28	0.049	
485	  NE	81.372	47.447	1.223	N.pl3	28	ARG28	-0.530	
486	  CZ	82.066	46.752	2.119	C.cat	28	ARG28	0.808	
487	 NH1	82.073	45.449	2.175	N.pl3	28	ARG28	-0.863	
488	 NH2	82.775	47.401	2.988	N.pl3	28	ARG28	-0.863	
489	   H	77.488	47.372	-4.352	 H	28	ARG28	0.275	
490	  HA	77.826	49.306	-2.099	 H	28	ARG28	0.156	
491	 2HB	79.489	46.710	-2.422	 H	28	ARG28	0.033	
492	 3HB	78.140	46.841	-1.312	 H	28	ARG28	0.033	
493	 2HG	79.308	48.685	-0.031	 H	28	ARG28	0.029	
494	 3HG	80.689	48.598	-1.129	 H	28	ARG28	0.029	
495	 2HD	81.085	46.186	-0.502	 H	28	ARG28	0.069	
496	 3HD	79.694	46.242	0.608	 H	28	ARG28	0.069	
497	  HE	81.479	48.462	1.317	 H	28	ARG28	0.346	
498	1HH1	81.495	44.998	1.462	 H	28	ARG28	0.448	
499	2HH1	82.632	44.989	2.895	 H	28	ARG28	0.448	
500	1HH2	82.758	48.421	2.929	 H	28	ARG28	0.448	
501	2HH2	83.300	46.850	3.669	 H	28	ARG28	0.448	
@<TRIPOS>BOND
1 1 2 1
2 1 10 1
3 2 3 1
4 2 5 1
5 2 11 1
6 3 4 2
7 3 16 1
8 5 6 1
9 6 7 1
10 7 8 2
11 7 9 1
12 5 12 1
13 5 13 1
14 6 14 1
15 6 15 1
16 16 17 1
17 16 25 1
18 17 18 1
19 17 20 1
20 17 26 1
21 18 19 2
22 18 33 1
23 20 21 1
24 21 22 1
25 22 23 1
26 22 24 2
27 20 27 1
28 20 28 1
29 21 29 1
30 21 30 1
31 23 31 1
32 23 32 1
33 33 34 1
34 33 45 1
35 34 35 1
36 34 37 1
37 34 46 1
38 35 36 2
39 35 54 1
40 37 38 1
41 38 39 2
42 38 40 1
43 40 42 2
44 39 41 1
45 42 43 1
46 41 43 2
47 43 44 1
48 37 47 1
49 37 48 1
50 39 49 1
51 40 50 1
52 41 51 1
53 42 52 1
54 44 53 1
55 54 55 1
56 54 61 1
57 55 56 1
58 55 58 1
59 55 62 1
60 56 57 2
61 56 68 1
62 58 59 1
63 58 60 1
64 58 63 1
65 60 64 1
66 59 65 1
67 59 66 1
68 59 67 1
69 68 69 1
70 68 73 1
71 69 70 1
72 69 72 1
73 69 74 1
74 70 71 2
75 70 78 1
76 72 75 1
77 72 76 1
78 72 77 1
79 78 79 1
80 78 87 1
81 79 80 1
82 79 82 1
83 79 88 1
84 80 81 2
85 80 100 1
86 82 83 1
87 83 84 1
88 84 85 1
89 85 86 1
90 86 99 1
91 82 89 1
92 82 90 1
93 83 91 1
94 83 92 1
95 84 93 1
96 84 94 1
97 85 95 1
98 85 96 1
99 86 97 1
100 86 98 1
101 100 101 1
102 100 112 1
103 101 102 1
104 101 104 1
105 101 113 1
106 102 103 2
107 102 121 1
108 104 105 1
109 105 106 2
110 105 107 1
111 107 109 2
112 106 108 1
113 109 110 1
114 108 110 2
115 110 111 1
116 104 114 1
117 104 115 1
118 106 116 1
119 107 117 1
120 108 118 1
121 109 119 1
122 111 120 1
123 121 122 1
124 121 130 1
125 122 123 1
126 122 125 1
127 122 131 1
128 123 124 2
129 123 143 1
130 125 126 1
131 126 127 1
132 127 128 1
133 128 129 1
134 129 142 1
135 125 132 1
136 125 133 1
137 126 134 1
138 126 135 1
139 127 136 1
140 127 137 1
141 128 138 1
142 128 139 1
143 129 140 1
144 129 141 1
145 143 144 1
146 143 147 1
147 144 145 1
148 144 148 1
149 144 149 1
150 145 146 2
151 145 150 1
152 150 151 1
153 150 161 1
154 151 152 1
155 151 154 1
156 151 162 1
157 152 153 2
158 152 174 1
159 154 155 1
160 155 156 1
161 156 157 1
162 157 158 1
163 158 159 2
164 158 160 1
165 154 163 1
166 154 164 1
167 155 165 1
168 155 166 1
169 156 167 1
170 156 168 1
171 157 169 1
172 159 170 1
173 159 171 1
174 160 172 1
175 160 173 1
176 174 175 1
177 174 181 1
178 175 176 1
179 175 178 1
180 175 182 1
181 176 177 2
182 176 188 1
183 178 179 1
184 178 180 1
185 178 183 1
186 180 184 1
187 179 185 1
188 179 186 1
189 179 187 1
190 188 189 1
191 188 199 1
192 189 190 1
193 189 192 1
194 189 200 1
195 190 191 2
196 190 208 1
197 192 193 1
198 193 194 2
199 193 195 1
200 195 197 2
201 194 196 1
202 197 198 1
203 196 198 2
204 192 201 1
205 192 202 1
206 194 203 1
207 195 204 1
208 196 205 1
209 197 206 1
210 198 207 1
211 208 209 1
212 208 219 1
213 209 210 1
214 209 212 1
215 209 220 1
216 210 211 2
217 210 232 1
218 212 213 1
219 213 214 1
220 214 215 1
221 215 216 1
222 216 217 2
223 216 218 1
224 212 221 1
225 212 222 1
226 213 223 1
227 213 224 1
228 214 225 1
229 214 226 1
230 215 227 1
231 217 228 1
232 217 229 1
233 218 230 1
234 218 231 1
235 232 233 1
236 232 240 1
237 233 234 1
238 233 236 1
239 233 241 1
240 234 235 2
241 234 246 1
242 236 237 1
243 237 238 1
244 237 239 2
245 236 242 1
246 236 243 1
247 238 244 1
248 238 245 1
249 246 247 1
250 246 255 1
251 247 248 1
252 247 250 1
253 247 256 1
254 248 249 2
255 248 261 1
256 250 251 1
257 251 252 1
258 252 253 2
259 252 254 1
260 250 257 1
261 250 258 1
262 251 259 1
263 251 260 1
264 261 262 1
265 261 270 1
266 262 263 1
267 262 265 1
268 262 271 1
269 263 264 2
270 263 283 1
271 265 266 1
272 266 267 1
273 267 268 1
274 268 269 1
275 269 282 1
276 265 272 1
277 265 273 1
278 266 274 1
279 266 275 1
280 267 276 1
281 267 277 1
282 268 278 1
283 268 279 1
284 269 280 1
285 269 281 1
286 283 284 1
287 283 292 1
288 284 285 1
289 284 287 1
290 284 293 1
291 285 286 2
292 285 298 1
293 287 288 1
294 288 289 1
295 289 290 2
296 289 291 1
297 287 294 1
298 287 295 1
299 288 296 1
300 288 297 1
301 298 299 1
302 298 306 1
303 299 300 1
304 299 302 1
305 299 307 1
306 300 301 2
307 300 317 1
308 302 303 1
309 303 304 1
310 303 305 1
311 302 308 1
312 302 309 1
313 303 310 1
314 304 311 1
315 304 312 1
316 304 313 1
317 305 314 1
318 305 315 1
319 305 316 1
320 317 318 1
321 317 328 1
322 318 319 1
323 318 321 1
324 318 329 1
325 319 320 2
326 319 341 1
327 321 322 1
328 322 323 1
329 323 324 1
330 324 325 1
331 325 326 2
332 325 327 1
333 321 330 1
334 321 331 1
335 322 332 1
336 322 333 1
337 323 334 1
338 323 335 1
339 324 336 1
340 326 337 1
341 326 338 1
342 327 339 1
343 327 340 1
344 341 342 1
345 341 349 1
346 342 343 1
347 342 345 1
348 342 350 1
349 343 344 2
350 343 353 1
351 345 346 1
352 346 347 2
353 346 348 1
354 345 351 1
355 345 352 1
356 353 354 1
357 353 364 1
358 354 355 1
359 354 357 1
360 354 365 1
361 355 356 2
362 355 373 1
363 357 358 1
364 358 359 2
365 358 360 1
366 360 362 2
367 359 361 1
368 362 363 1
369 361 363 2
370 357 366 1
371 357 367 1
372 359 368 1
373 360 369 1
374 361 370 1
375 362 371 1
376 363 372 1
377 373 374 1
378 373 381 1
379 374 375 1
380 374 377 1
381 374 382 1
382 375 376 2
383 375 392 1
384 377 378 1
385 377 379 1
386 378 380 1
387 377 383 1
388 378 384 1
389 378 385 1
390 379 386 1
391 379 387 1
392 379 388 1
393 380 389 1
394 380 390 1
395 380 391 1
396 392 393 1
397 392 401 1
398 393 394 1
399 393 396 1
400 393 402 1
401 394 395 2
402 394 407 1
403 396 397 1
404 397 398 1
405 398 399 2
406 398 400 1
407 396 403 1
408 396 404 1
409 397 405 1
410 397 406 1
411 407 408 1
412 407 416 1
413 408 409 1
414 408 411 1
415 408 417 1
416 409 410 2
417 409 429 1
418 411 412 1
419 412 413 1
420 413 414 1
421 414 415 1
422 415 428 1
423 411 418 1
424 411 419 1
425 412 420 1
426 412 421 1
427 413 422 1
428 413 423 1
429 414 424 1
430 414 425 1
431 415 426 1
432 415 427 1
433 429 430 1
434 429 440 1
435 430 431 1
436 430 433 1
437 430 441 1
438 431 432 2
439 431 449 1
440 433 434 1
441 434 435 2
442 434 436 1
443 436 438 2
444 435 437 1
445 438 439 1
446 437 439 2
447 433 442 1
448 433 443 1
449 435 444 1
450 436 445 1
451 437 446 1
452 438 447 1
453 439 448 1
454 449 450 1
455 449 458 1
456 450 451 1
457 450 453 1
458 450 459 1
459 451 452 2
460 451 471 1
461 453 454 1
462 454 455 1
463 455 456 1
464 456 457 1
465 457 470 1
466 453 460 1
467 453 461 1
468 454 462 1
469 454 463 1
470 455 464 1
471 455 465 1
472 456 466 1
473 456 467 1
474 457 468 1
475 457 469 1
476 471 472 1
477 471 475 1
478 472 473 1
479 472 476 1
480 472 477 1
481 473 474 2
482 473 478 1
483 478 479 1
484 478 489 1
485 479 480 1
486 479 482 1
487 479 490 1
488 480 481 2
489 482 483 1
490 483 484 1
491 484 485 1
492 485 486 1
493 486 487 2
494 486 488 1
495 482 491 1
496 482 492 1
497 483 493 1
498 483 494 1
499 484 495 1
500 484 496 1
501 485 497 1
502 487 498 1
503 487 499 1
504 488 500 1
505 488 501 1
@<TRIPOS>SUBSTRUCTURE
1	GLU1	1	RESIDUE	1 X	GLU
2	GLN2	16	RESIDUE	1 X	GLN
3	TYR3	33	RESIDUE	1 X	TYR
4	THR4	54	RESIDUE	1 X	THR
5	ALA5	68	RESIDUE	1 X	ALA
6	LYS6	78	RESIDUE	1 X	LYS
7	TYR7	100	RESIDUE	1 X	TYR
8	LYS8	121	RESIDUE	1 X	LYS
9	GLY9	143	RESIDUE	1 X	GLY
10	ARG10	150	RESIDUE	1 X	ARG
11	THR11	174	RESIDUE	1 X	THR
12	PHE12	188	RESIDUE	1 X	PHE
13	ARG13	208	RESIDUE	1 X	ARG
14	ASN14	232	RESIDUE	1 X	ASN
15	GLU15	246	RESIDUE	1 X	GLU
16	LYS16	261	RESIDUE	1 X	LYS
17	GLU17	283	RESIDUE	1 X	GLU
18	LEU18	298	RESIDUE	1 X	LEU
19	ARG19	317	RESIDUE	1 X	ARG
20	ASP20	341	RESIDUE	1 X	ASP
21	PHE21	353	RESIDUE	1 X	PHE
22	ILE22	373	RESIDUE	1 X	ILE
23	GLU23	392	RESIDUE	1 X	GLU
24	LYS24	407	RESIDUE	1 X	LYS
25	PHE25	429	RESIDUE	1 X	PHE
26	LYS26	449	RESIDUE	1 X	LYS
27	GLY27	471	RESIDUE	1 X	GLY
28	ARG28	478	RESIDUE	1 X	ARG
